REMARK VINA RESULT:      -5.4      0.000      0.000
REMARK  1 active torsions:
REMARK  status: ('A' for Active; 'I' for Inactive)
REMARK    1  A    between atoms: C8_17  and  C18_19 
ROOT
HETATM    1 CL1  HUX A 803       2.689  62.496  70.939  1.00 25.95    -0.084 Cl
HETATM    2  C1  HUX A 803       2.718  63.177  69.421  1.00 28.50     0.036 A 
HETATM    3  N1  HUX A 803       1.739  66.273  67.619  1.00 24.85    -0.358 N 
ATOM      4  H1  HUX A 803       1.260  66.763  68.375  1.00  0.00     0.166 HD
HETATM    5  C3  HUX A 803       2.307  64.942  67.813  1.00 26.43     0.046 A 
HETATM    6  C4  HUX A 803       1.876  66.826  66.396  1.00 24.00     0.018 A 
HETATM    7  N2  HUX A 803       3.710  64.311  64.421  1.00 27.04    -0.101 NA
HETATM    8  C14 HUX A 803       3.068  64.894  65.497  1.00 26.27     0.067 A 
HETATM    9  C2  HUX A 803       2.141  64.510  69.115  1.00 27.70     0.054 A 
HETATM   10  C17 HUX A 803       3.388  62.438  68.292  1.00 26.96     0.025 A 
HETATM   11  C15 HUX A 803       2.938  64.299  66.776  1.00 26.87     0.015 A 
HETATM   12  C5  HUX A 803       1.234  68.314  66.295  1.00 24.99     0.066 C 
HETATM   13  C13 HUX A 803       2.504  66.273  65.294  1.00 25.35    -0.006 A 
HETATM   14  C6  HUX A 803       1.829  69.124  65.131  1.00 25.41     0.014 C 
HETATM   15  C7  HUX A 803       3.466  69.421  65.304  1.00 25.50    -0.019 C 
HETATM   16  C12 HUX A 803       1.691  68.323  63.853  1.00 25.36     0.018 C 
HETATM   17  C8  HUX A 803       4.471  68.706  64.793  1.00 26.25    -0.083 C 
HETATM   18  C9  HUX A 803       4.081  67.513  63.951  1.00 26.66     0.043 C 
HETATM   19  C11 HUX A 803       2.633  67.046  63.977  1.00 26.07     0.027 C 
HETATM   20  C16 HUX A 803       3.506  62.927  67.044  1.00 26.80     0.017 A 
ENDROOT
BRANCH  17  21
HETATM   21  C18 HUX A 803       5.953  69.151  65.108  1.00 26.17     0.029 C 
HETATM   22  C10 HUX A 803       6.244  70.189  66.216  1.00 24.58     0.010 C 
ENDBRANCH  17  21
TORSDOF 1
