REMARK VINA RESULT:      -8.9      0.000      0.000
REMARK  1 active torsions:
REMARK  status: ('A' for Active; 'I' for Inactive)
REMARK    1  A    between atoms: C8_17  and  C18_19 
ROOT
HETATM    1 CL1  HUX A 803       1.908  63.325  69.731  1.00 25.95    -0.084 Cl
HETATM    2  C1  HUX A 803       2.564  64.592  68.874  1.00 28.50     0.036 A 
HETATM    3  N1  HUX A 803       4.518  65.299  65.797  1.00 24.85    -0.358 N 
ATOM      4  H1  HUX A 803       4.707  64.344  65.494  1.00  0.00     0.166 HD
HETATM    5  C3  HUX A 803       3.776  65.578  67.022  1.00 26.43     0.046 A 
HETATM    6  C4  HUX A 803       4.944  66.362  65.082  1.00 24.00     0.018 A 
HETATM    7  N2  HUX A 803       3.786  69.303  66.980  1.00 27.04    -0.101 NA
HETATM    8  C14 HUX A 803       4.005  67.977  66.653  1.00 26.27     0.067 A 
HETATM    9  C2  HUX A 803       3.359  64.411  67.634  1.00 27.70     0.054 A 
HETATM   10  C17 HUX A 803       2.324  66.004  69.341  1.00 26.96     0.025 A 
HETATM   11  C15 HUX A 803       3.545  66.875  67.414  1.00 26.87     0.015 A 
HETATM   12  C5  HUX A 803       5.734  65.942  63.727  1.00 24.99     0.066 C 
HETATM   13  C13 HUX A 803       4.752  67.700  65.378  1.00 25.35    -0.006 A 
HETATM   14  C6  HUX A 803       5.747  67.077  62.689  1.00 25.41     0.014 C 
HETATM   15  C7  HUX A 803       4.221  67.483  62.137  1.00 25.50    -0.019 C 
HETATM   16  C12 HUX A 803       6.295  68.331  63.339  1.00 25.36     0.018 C 
HETATM   17  C8  HUX A 803       3.432  68.456  62.598  1.00 26.25    -0.083 C 
HETATM   18  C9  HUX A 803       3.991  69.290  63.728  1.00 26.66     0.043 C 
HETATM   19  C11 HUX A 803       5.247  68.805  64.438  1.00 26.07     0.027 C 
HETATM   20  C16 HUX A 803       2.769  67.093  68.690  1.00 26.80     0.017 A 
ENDROOT
BRANCH  17  21
HETATM   21  C18 HUX A 803       2.007  68.648  61.946  1.00 26.17     0.029 C 
HETATM   22  C10 HUX A 803       0.944  69.540  62.626  1.00 24.58     0.010 C 
ENDBRANCH  17  21
TORSDOF 1
