REMARK VINA RESULT:      -5.9      0.000      0.000
REMARK  1 active torsions:
REMARK  status: ('A' for Active; 'I' for Inactive)
REMARK    1  A    between atoms: C8_17  and  C18_19 
ROOT
HETATM    1 CL1  HUX A 803       2.120  64.197  70.963  1.00 25.95    -0.084 Cl
HETATM    2  C1  HUX A 803       2.438  64.478  69.354  1.00 28.50     0.036 A 
HETATM    3  N1  HUX A 803       1.668  66.882  66.630  1.00 24.85    -0.358 N 
ATOM      4  H1  HUX A 803       0.999  67.479  67.116  1.00  0.00     0.166 HD
HETATM    5  C3  HUX A 803       2.272  65.724  67.282  1.00 26.43     0.046 A 
HETATM    6  C4  HUX A 803       2.035  67.128  65.355  1.00 24.00     0.018 A 
HETATM    7  N2  HUX A 803       4.436  64.455  64.529  1.00 27.04    -0.101 NA
HETATM    8  C14 HUX A 803       3.530  65.201  65.261  1.00 26.27     0.067 A 
HETATM    9  C2  HUX A 803       1.851  65.610  68.593  1.00 27.70     0.054 A 
HETATM   10  C17 HUX A 803       3.393  63.574  68.620  1.00 26.96     0.025 A 
HETATM   11  C15 HUX A 803       3.162  64.929  66.601  1.00 26.87     0.015 A 
HETATM   12  C5  HUX A 803       1.328  68.451  64.734  1.00 24.99     0.066 C 
HETATM   13  C13 HUX A 803       2.930  66.403  64.587  1.00 25.35    -0.006 A 
HETATM   14  C6  HUX A 803       2.108  69.016  63.535  1.00 25.41     0.014 C 
HETATM   15  C7  HUX A 803       3.640  69.552  63.940  1.00 25.50    -0.019 C 
HETATM   16  C12 HUX A 803       2.315  67.913  62.518  1.00 25.36     0.018 C 
HETATM   17  C8  HUX A 803       4.782  68.866  63.847  1.00 26.25    -0.083 C 
HETATM   18  C9  HUX A 803       4.675  67.462  63.298  1.00 26.66     0.043 C 
HETATM   19  C11 HUX A 803       3.293  66.837  63.163  1.00 26.07     0.027 C 
HETATM   20  C16 HUX A 803       3.751  63.750  67.335  1.00 26.80     0.017 A 
ENDROOT
BRANCH  17  21
HETATM   21  C18 HUX A 803       6.121  69.559  64.315  1.00 26.17     0.029 C 
HETATM   22  C10 HUX A 803       6.381  69.838  65.814  1.00 24.58     0.010 C 
ENDBRANCH  17  21
TORSDOF 1
