REMARK VINA RESULT:      -9.8      0.000      0.000
REMARK  1 active torsions:
REMARK  status: ('A' for Active; 'I' for Inactive)
REMARK    1  A    between atoms: C8_17  and  C18_19 
ROOT
HETATM    1 CL1  HUX A 803       8.036  71.573  68.820  1.00 25.95    -0.084 Cl
HETATM    2  C1  HUX A 803       6.794  70.983  67.883  1.00 28.50     0.036 A 
HETATM    3  N1  HUX A 803       6.098  69.730  64.457  1.00 24.85    -0.358 N 
ATOM      4  H1  HUX A 803       7.007  69.902  64.027  1.00  0.00     0.166 HD
HETATM    5  C3  HUX A 803       5.832  70.088  65.847  1.00 26.43     0.046 A 
HETATM    6  C4  HUX A 803       5.089  69.161  63.766  1.00 24.00     0.018 A 
HETATM    7  N2  HUX A 803       2.289  68.982  66.158  1.00 27.04    -0.101 NA
HETATM    8  C14 HUX A 803       3.546  69.263  65.656  1.00 26.27     0.067 A 
HETATM    9  C2  HUX A 803       6.955  70.618  66.453  1.00 27.70     0.054 A 
HETATM   10  C17 HUX A 803       5.438  70.766  68.503  1.00 26.96     0.025 A 
HETATM   11  C15 HUX A 803       4.595  69.857  66.399  1.00 26.87     0.015 A 
HETATM   12  C5  HUX A 803       5.497  68.778  62.242  1.00 24.99     0.066 C 
HETATM   13  C13 HUX A 803       3.817  68.871  64.230  1.00 25.35    -0.006 A 
HETATM   14  C6  HUX A 803       4.577  67.698  61.650  1.00 25.41     0.014 C 
HETATM   15  C7  HUX A 803       4.675  66.235  62.455  1.00 25.50    -0.019 C 
HETATM   16  C12 HUX A 803       3.137  68.147  61.790  1.00 25.36     0.018 C 
HETATM   17  C8  HUX A 803       3.881  65.803  63.438  1.00 26.25    -0.083 C 
HETATM   18  C9  HUX A 803       2.763  66.733  63.850  1.00 26.66     0.043 C 
HETATM   19  C11 HUX A 803       2.785  68.168  63.342  1.00 26.07     0.027 C 
HETATM   20  C16 HUX A 803       4.388  70.248  67.841  1.00 26.80     0.017 A 
ENDROOT
BRANCH  17  21
HETATM   21  C18 HUX A 803       4.173  64.391  64.082  1.00 26.17     0.029 C 
HETATM   22  C10 HUX A 803       3.142  63.728  65.024  1.00 24.58     0.010 C 
ENDBRANCH  17  21
TORSDOF 1
