REMARK VINA RESULT:      -6.7      0.000      0.000
REMARK  1 active torsions:
REMARK  status: ('A' for Active; 'I' for Inactive)
REMARK    1  A    between atoms: C8_17  and  C18_19 
ROOT
HETATM    1 CL1  HUX A 803       6.537  68.937  61.888  1.00 25.95    -0.084 Cl
HETATM    2  C1  HUX A 803       5.765  67.839  62.871  1.00 28.50     0.036 A 
HETATM    3  N1  HUX A 803       5.714  66.636  66.384  1.00 24.85    -0.358 N 
ATOM      4  H1  HUX A 803       6.497  67.172  66.757  1.00  0.00     0.166 HD
HETATM    5  C3  HUX A 803       5.323  66.732  64.981  1.00 26.43     0.046 A 
HETATM    6  C4  HUX A 803       4.992  65.806  67.166  1.00 24.00     0.018 A 
HETATM    7  N2  HUX A 803       2.447  64.365  64.922  1.00 27.04    -0.101 NA
HETATM    8  C14 HUX A 803       3.529  65.120  65.337  1.00 26.27     0.067 A 
HETATM    9  C2  HUX A 803       6.108  67.644  64.303  1.00 27.70     0.054 A 
HETATM   10  C17 HUX A 803       4.634  67.014  62.314  1.00 26.96     0.025 A 
HETATM   11  C15 HUX A 803       4.271  65.989  64.501  1.00 26.87     0.015 A 
HETATM   12  C5  HUX A 803       5.492  65.793  68.711  1.00 24.99     0.066 C 
HETATM   13  C13 HUX A 803       3.911  65.030  66.788  1.00 25.35    -0.006 A 
HETATM   14  C6  HUX A 803       4.398  65.294  69.670  1.00 25.41     0.014 C 
HETATM   15  C7  HUX A 803       3.052  66.286  69.707  1.00 25.50    -0.019 C 
HETATM   16  C12 HUX A 803       3.900  63.946  69.189  1.00 25.36     0.018 C 
HETATM   17  C8  HUX A 803       1.930  66.148  68.996  1.00 26.25    -0.083 C 
HETATM   18  C9  HUX A 803       1.868  64.951  68.074  1.00 26.66     0.043 C 
HETATM   19  C11 HUX A 803       3.149  64.172  67.805  1.00 26.07     0.027 C 
HETATM   20  C16 HUX A 803       3.917  66.138  63.042  1.00 26.80     0.017 A 
ENDROOT
BRANCH  17  21
HETATM   21  C18 HUX A 803       0.788  67.224  69.166  1.00 26.17     0.029 C 
HETATM   22  C10 HUX A 803       0.822  68.541  68.358  1.00 24.58     0.010 C 
ENDBRANCH  17  21
TORSDOF 1
