REMARK VINA RESULT:       5.7      0.000      0.000
REMARK  1 active torsions:
REMARK  status: ('A' for Active; 'I' for Inactive)
REMARK    1  A    between atoms: C8_17  and  C18_19 
ROOT
HETATM    1 CL1  HUX A 803       1.364  62.442  69.530  1.00 25.95    -0.084 Cl
HETATM    2  C1  HUX A 803       2.331  63.382  68.555  1.00 28.50     0.036 A 
HETATM    3  N1  HUX A 803       3.328  63.790  65.001  1.00 24.85    -0.358 N 
ATOM      4  H1  HUX A 803       2.846  62.987  64.597  1.00  0.00     0.166 HD
HETATM    5  C3  HUX A 803       3.274  64.072  66.432  1.00 26.43     0.046 A 
HETATM    6  C4  HUX A 803       4.044  64.640  64.235  1.00 24.00     0.018 A 
HETATM    7  N2  HUX A 803       5.367  67.149  66.590  1.00 27.04    -0.101 NA
HETATM    8  C14 HUX A 803       4.693  66.032  66.133  1.00 26.27     0.067 A 
HETATM    9  C2  HUX A 803       2.476  63.159  67.094  1.00 27.70     0.054 A 
HETATM   10  C17 HUX A 803       3.078  64.544  69.154  1.00 26.96     0.025 A 
HETATM   11  C15 HUX A 803       3.942  65.154  66.953  1.00 26.87     0.015 A 
HETATM   12  C5  HUX A 803       4.016  64.253  62.659  1.00 24.99     0.066 C 
HETATM   13  C13 HUX A 803       4.737  65.762  64.654  1.00 25.35    -0.006 A 
HETATM   14  C6  HUX A 803       4.360  65.453  61.761  1.00 25.41     0.014 C 
HETATM   15  C7  HUX A 803       3.248  66.698  61.872  1.00 25.50    -0.019 C 
HETATM   16  C12 HUX A 803       5.681  66.043  62.211  1.00 25.36     0.018 C 
HETATM   17  C8  HUX A 803       3.322  67.775  62.657  1.00 26.25    -0.083 C 
HETATM   18  C9  HUX A 803       4.557  67.887  63.522  1.00 26.66     0.043 C 
HETATM   19  C11 HUX A 803       5.463  66.671  63.656  1.00 26.07     0.027 C 
HETATM   20  C16 HUX A 803       3.843  65.390  68.439  1.00 26.80     0.017 A 
ENDROOT
BRANCH  17  21
HETATM   21  C18 HUX A 803       2.138  68.819  62.625  1.00 26.17     0.029 C 
HETATM   22  C10 HUX A 803       2.163  70.006  61.635  1.00 24.58     0.010 C 
ENDBRANCH  17  21
TORSDOF 1
