REMARK VINA RESULT:      -5.7      0.000      0.000
REMARK  1 active torsions:
REMARK  status: ('A' for Active; 'I' for Inactive)
REMARK    1  A    between atoms: C8_17  and  C18_19 
ROOT
HETATM    1 CL1  HUX A 803       7.995  71.659  68.718  1.00 25.95    -0.084 Cl
HETATM    2  C1  HUX A 803       6.753  71.063  67.785  1.00 28.50     0.036 A 
HETATM    3  N1  HUX A 803       6.074  69.706  64.396  1.00 24.85    -0.358 N 
ATOM      4  H1  HUX A 803       6.992  69.844  63.972  1.00  0.00     0.166 HD
HETATM    5  C3  HUX A 803       5.797  70.118  65.769  1.00 26.43     0.046 A 
HETATM    6  C4  HUX A 803       5.061  69.134  63.712  1.00 24.00     0.018 A 
HETATM    7  N2  HUX A 803       2.228  69.098  66.070  1.00 27.04    -0.101 NA
HETATM    8  C14 HUX A 803       3.497  69.335  65.575  1.00 26.27     0.067 A 
HETATM    9  C2  HUX A 803       6.924  70.645  66.371  1.00 27.70     0.054 A 
HETATM   10  C17 HUX A 803       5.385  70.897  68.393  1.00 26.96     0.025 A 
HETATM   11  C15 HUX A 803       4.549  69.932  66.312  1.00 26.87     0.015 A 
HETATM   12  C5  HUX A 803       5.481  68.690  62.207  1.00 24.99     0.066 C 
HETATM   13  C13 HUX A 803       3.778  68.888  64.167  1.00 25.35    -0.006 A 
HETATM   14  C6  HUX A 803       4.545  67.609  61.640  1.00 25.41     0.014 C 
HETATM   15  C7  HUX A 803       4.601  66.173  62.497  1.00 25.50    -0.019 C 
HETATM   16  C12 HUX A 803       3.113  68.093  61.746  1.00 25.36     0.018 C 
HETATM   17  C8  HUX A 803       3.786  65.793  63.484  1.00 26.25    -0.083 C 
HETATM   18  C9  HUX A 803       2.683  66.760  63.848  1.00 26.66     0.043 C 
HETATM   19  C11 HUX A 803       2.742  68.175  63.290  1.00 26.07     0.027 C 
HETATM   20  C16 HUX A 803       4.331  70.378  67.736  1.00 26.80     0.017 A 
ENDROOT
BRANCH  17  21
HETATM   21  C18 HUX A 803       4.039  64.399  64.180  1.00 26.17     0.029 C 
HETATM   22  C10 HUX A 803       2.956  63.761  65.080  1.00 24.58     0.010 C 
ENDBRANCH  17  21
TORSDOF 1
