REMARK VINA RESULT:      -6.6      0.000      0.000
REMARK  1 active torsions:
REMARK  status: ('A' for Active; 'I' for Inactive)
REMARK    1  A    between atoms: C8_17  and  C18_19 
ROOT
HETATM    1 CL1  HUX A 803       2.282  63.909  70.900  1.00 25.95    -0.084 Cl
HETATM    2  C1  HUX A 803       2.577  64.262  69.301  1.00 28.50     0.036 A 
HETATM    3  N1  HUX A 803       1.702  66.739  66.676  1.00 24.85    -0.358 N 
ATOM      4  H1  HUX A 803       1.017  67.293  67.190  1.00  0.00     0.166 HD
HETATM    5  C3  HUX A 803       2.351  65.579  67.279  1.00 26.43     0.046 A 
HETATM    6  C4  HUX A 803       2.049  67.045  65.409  1.00 24.00     0.018 A 
HETATM    7  N2  HUX A 803       4.534  64.491  64.464  1.00 27.04    -0.101 NA
HETATM    8  C14 HUX A 803       3.609  65.176  65.231  1.00 26.27     0.067 A 
HETATM    9  C2  HUX A 803       1.945  65.400  68.588  1.00 27.70     0.054 A 
HETATM   10  C17 HUX A 803       3.556  63.420  68.526  1.00 26.96     0.025 A 
HETATM   11  C15 HUX A 803       3.262  64.841  66.562  1.00 26.87     0.015 A 
HETATM   12  C5  HUX A 803       1.292  68.365  64.843  1.00 24.99     0.066 C 
HETATM   13  C13 HUX A 803       2.962  66.382  64.608  1.00 25.35    -0.006 A 
HETATM   14  C6  HUX A 803       2.042  69.003  63.662  1.00 25.41     0.014 C 
HETATM   15  C7  HUX A 803       3.558  69.575  64.076  1.00 25.50    -0.019 C 
HETATM   16  C12 HUX A 803       2.278  67.946  62.602  1.00 25.36     0.018 C 
HETATM   17  C8  HUX A 803       4.722  68.934  63.949  1.00 26.25    -0.083 C 
HETATM   18  C9  HUX A 803       4.659  67.548  63.347  1.00 26.66     0.043 C 
HETATM   19  C11 HUX A 803       3.299  66.881  63.198  1.00 26.07     0.027 C 
HETATM   20  C16 HUX A 803       3.898  63.656  67.246  1.00 26.80     0.017 A 
ENDROOT
BRANCH  17  21
HETATM   21  C18 HUX A 803       6.041  69.654  64.434  1.00 26.17     0.029 C 
HETATM   22  C10 HUX A 803       6.187  70.125  65.899  1.00 24.58     0.010 C 
ENDBRANCH  17  21
TORSDOF 1
