REMARK VINA RESULT:      -9.8      0.000      0.000
REMARK  1 active torsions:
REMARK  status: ('A' for Active; 'I' for Inactive)
REMARK    1  A    between atoms: C8_17  and  C18_19 
ROOT
HETATM    1 CL1  HUX A 803       2.114  62.433  70.154  1.00 25.95    -0.084 Cl
HETATM    2  C1  HUX A 803       2.574  63.868  69.449  1.00 28.50     0.036 A 
HETATM    3  N1  HUX A 803       4.263  65.193  66.419  1.00 24.85    -0.358 N 
ATOM      4  H1  HUX A 803       4.542  64.313  65.983  1.00  0.00     0.166 HD
HETATM    5  C3  HUX A 803       3.563  65.222  67.699  1.00 26.43     0.046 A 
HETATM    6  C4  HUX A 803       4.526  66.381  65.837  1.00 24.00     0.018 A 
HETATM    7  N2  HUX A 803       3.149  68.895  68.155  1.00 27.04    -0.101 NA
HETATM    8  C14 HUX A 803       3.498  67.658  67.646  1.00 26.27     0.067 A 
HETATM    9  C2  HUX A 803       3.315  63.945  68.165  1.00 27.70     0.054 A 
HETATM   10  C17 HUX A 803       2.202  65.170  70.110  1.00 26.96     0.025 A 
HETATM   11  C15 HUX A 803       3.209  66.421  68.270  1.00 26.87     0.015 A 
HETATM   12  C5  HUX A 803       5.282  66.236  64.407  1.00 24.99     0.066 C 
HETATM   13  C13 HUX A 803       4.201  67.638  66.317  1.00 25.35    -0.006 A 
HETATM   14  C6  HUX A 803       5.110  67.488  63.531  1.00 25.41     0.014 C 
HETATM   15  C7  HUX A 803       3.520  67.777  63.099  1.00 25.50    -0.019 C 
HETATM   16  C12 HUX A 803       5.548  68.705  64.321  1.00 25.36     0.018 C 
HETATM   17  C8  HUX A 803       2.653  68.581  63.718  1.00 26.25    -0.083 C 
HETATM   18  C9  HUX A 803       3.175  69.324  64.926  1.00 26.66     0.043 C 
HETATM   19  C11 HUX A 803       4.515  68.905  65.514  1.00 26.07     0.027 C 
HETATM   20  C16 HUX A 803       2.485  66.379  69.593  1.00 26.80     0.017 A 
ENDROOT
BRANCH  17  21
HETATM   21  C18 HUX A 803       1.181  68.684  63.154  1.00 26.17     0.029 C 
HETATM   22  C10 HUX A 803       0.854  69.633  61.978  1.00 24.58     0.010 C 
ENDBRANCH  17  21
TORSDOF 1
