REMARK VINA RESULT:      -5.8      0.000      0.000
REMARK  1 active torsions:
REMARK  status: ('A' for Active; 'I' for Inactive)
REMARK    1  A    between atoms: C8_17  and  C18_19 
ROOT
HETATM    1 CL1  HUX A 803       2.117  64.281  70.963  1.00 25.95    -0.084 Cl
HETATM    2  C1  HUX A 803       2.472  64.565  69.362  1.00 28.50     0.036 A 
HETATM    3  N1  HUX A 803       1.677  66.909  66.594  1.00 24.85    -0.358 N 
ATOM      4  H1  HUX A 803       0.965  67.477  67.054  1.00  0.00     0.166 HD
HETATM    5  C3  HUX A 803       2.314  65.786  67.275  1.00 26.43     0.046 A 
HETATM    6  C4  HUX A 803       2.072  67.163  65.329  1.00 24.00     0.018 A 
HETATM    7  N2  HUX A 803       4.621  64.601  64.603  1.00 27.04    -0.101 NA
HETATM    8  C14 HUX A 803       3.659  65.308  65.299  1.00 26.27     0.067 A 
HETATM    9  C2  HUX A 803       1.857  65.662  68.573  1.00 27.70     0.054 A 
HETATM   10  C17 HUX A 803       3.492  63.702  68.667  1.00 26.96     0.025 A 
HETATM   11  C15 HUX A 803       3.261  65.029  66.630  1.00 26.87     0.015 A 
HETATM   12  C5  HUX A 803       1.323  68.446  64.674  1.00 24.99     0.066 C 
HETATM   13  C13 HUX A 803       3.024  66.476  64.597  1.00 25.35    -0.006 A 
HETATM   14  C6  HUX A 803       2.113  69.039  63.495  1.00 25.41     0.014 C 
HETATM   15  C7  HUX A 803       3.605  69.649  63.943  1.00 25.50    -0.019 C 
HETATM   16  C12 HUX A 803       2.405  67.938  62.495  1.00 25.36     0.018 C 
HETATM   17  C8  HUX A 803       4.780  69.018  63.893  1.00 26.25    -0.083 C 
HETATM   18  C9  HUX A 803       4.757  67.606  63.353  1.00 26.66     0.043 C 
HETATM   19  C11 HUX A 803       3.412  66.915  63.180  1.00 26.07     0.027 C 
HETATM   20  C16 HUX A 803       3.882  63.885  67.392  1.00 26.80     0.017 A 
ENDROOT
BRANCH  17  21
HETATM   21  C18 HUX A 803       6.070  69.777  64.397  1.00 26.17     0.029 C 
HETATM   22  C10 HUX A 803       6.170  70.275  65.857  1.00 24.58     0.010 C 
ENDBRANCH  17  21
TORSDOF 1
