REMARK VINA RESULT:      -7.7      0.000      0.000
REMARK  1 active torsions:
REMARK  status: ('A' for Active; 'I' for Inactive)
REMARK    1  A    between atoms: C8_17  and  C18_19 
ROOT
HETATM    1 CL1  HUX A 803       8.070  71.499  68.912  1.00 25.95    -0.084 Cl
HETATM    2  C1  HUX A 803       6.807  70.957  67.973  1.00 28.50     0.036 A 
HETATM    3  N1  HUX A 803       6.030  69.898  64.500  1.00 24.85    -0.358 N 
ATOM      4  H1  HUX A 803       6.927  70.098  64.058  1.00  0.00     0.166 HD
HETATM    5  C3  HUX A 803       5.797  70.175  65.914  1.00 26.43     0.046 A 
HETATM    6  C4  HUX A 803       5.005  69.364  63.803  1.00 24.00     0.018 A 
HETATM    7  N2  HUX A 803       2.266  69.038  66.249  1.00 27.04    -0.101 NA
HETATM    8  C14 HUX A 803       3.510  69.352  65.733  1.00 26.27     0.067 A 
HETATM    9  C2  HUX A 803       6.933  70.674  66.521  1.00 27.70     0.054 A 
HETATM   10  C17 HUX A 803       5.468  70.700  68.613  1.00 26.96     0.025 A 
HETATM   11  C15 HUX A 803       4.575  69.907  66.482  1.00 26.87     0.015 A 
HETATM   12  C5  HUX A 803       5.377  69.070  62.250  1.00 24.99     0.066 C 
HETATM   13  C13 HUX A 803       3.746  69.043  64.280  1.00 25.35    -0.006 A 
HETATM   14  C6  HUX A 803       4.445  68.021  61.620  1.00 25.41     0.014 C 
HETATM   15  C7  HUX A 803       4.568  66.515  62.338  1.00 25.50    -0.019 C 
HETATM   16  C12 HUX A 803       3.008  68.455  61.821  1.00 25.36     0.018 C 
HETATM   17  C8  HUX A 803       3.800  66.025  63.314  1.00 26.25    -0.083 C 
HETATM   18  C9  HUX A 803       2.689  66.925  63.805  1.00 26.66     0.043 C 
HETATM   19  C11 HUX A 803       2.694  68.387  63.379  1.00 26.07     0.027 C 
HETATM   20  C16 HUX A 803       4.402  70.215  67.949  1.00 26.80     0.017 A 
ENDROOT
BRANCH  17  21
HETATM   21  C18 HUX A 803       4.112  64.580  63.869  1.00 26.17     0.029 C 
HETATM   22  C10 HUX A 803       3.172  63.914  64.900  1.00 24.58     0.010 C 
ENDBRANCH  17  21
TORSDOF 1
