REMARK VINA RESULT:      -3.7      0.000      0.000
REMARK  1 active torsions:
REMARK  status: ('A' for Active; 'I' for Inactive)
REMARK    1  A    between atoms: C8_17  and  C18_19 
ROOT
HETATM    1 CL1  HUX A 803       0.788  63.578  70.963  1.00 25.95    -0.084 Cl
HETATM    2  C1  HUX A 803       1.847  64.254  69.871  1.00 28.50     0.036 A 
HETATM    3  N1  HUX A 803       3.200  63.736  66.452  1.00 24.85    -0.358 N 
ATOM      4  H1  HUX A 803       2.764  62.841  66.233  1.00  0.00     0.166 HD
HETATM    5  C3  HUX A 803       3.000  64.386  67.744  1.00 26.43     0.046 A 
HETATM    6  C4  HUX A 803       3.987  64.374  65.561  1.00 24.00     0.018 A 
HETATM    7  N2  HUX A 803       5.057  67.456  67.279  1.00 27.04    -0.101 NA
HETATM    8  C14 HUX A 803       4.436  66.238  67.073  1.00 26.27     0.067 A 
HETATM    9  C2  HUX A 803       2.141  63.657  68.545  1.00 27.70     0.054 A 
HETATM   10  C17 HUX A 803       2.526  65.556  70.209  1.00 26.96     0.025 A 
HETATM   11  C15 HUX A 803       3.608  65.587  68.020  1.00 26.87     0.015 A 
HETATM   12  C5  HUX A 803       4.122  63.582  64.150  1.00 24.99     0.066 C 
HETATM   13  C13 HUX A 803       4.631  65.587  65.732  1.00 25.35    -0.006 A 
HETATM   14  C6  HUX A 803       4.552  64.511  63.003  1.00 25.41     0.014 C 
HETATM   15  C7  HUX A 803       3.431  65.707  62.669  1.00 25.50    -0.019 C 
HETATM   16  C12 HUX A 803       5.818  65.238  63.406  1.00 25.36     0.018 C 
HETATM   17  C8  HUX A 803       3.422  66.956  63.142  1.00 26.25    -0.083 C 
HETATM   18  C9  HUX A 803       4.562  67.329  64.061  1.00 26.66     0.043 C 
HETATM   19  C11 HUX A 803       5.453  66.220  64.603  1.00 26.07     0.027 C 
HETATM   20  C16 HUX A 803       3.357  66.205  69.373  1.00 26.80     0.017 A 
ENDROOT
BRANCH  17  21
HETATM   21  C18 HUX A 803       2.244  67.918  62.717  1.00 26.17     0.029 C 
HETATM   22  C10 HUX A 803       1.348  68.583  63.786  1.00 24.58     0.010 C 
ENDBRANCH  17  21
TORSDOF 1
