REMARK VINA RESULT:     -10.1      0.000      0.000
REMARK  1 active torsions:
REMARK  status: ('A' for Active; 'I' for Inactive)
REMARK    1  A    between atoms: C8_17  and  C18_19 
ROOT
HETATM    1 CL1  HUX A 803       8.027  71.484  68.911  1.00 25.95    -0.084 Cl
HETATM    2  C1  HUX A 803       6.776  70.911  67.976  1.00 28.50     0.036 A 
HETATM    3  N1  HUX A 803       6.071  69.605  64.572  1.00 24.85    -0.358 N 
ATOM      4  H1  HUX A 803       6.988  69.740  64.147  1.00  0.00     0.166 HD
HETATM    5  C3  HUX A 803       5.804  70.002  65.951  1.00 26.43     0.046 A 
HETATM    6  C4  HUX A 803       5.050  69.052  63.885  1.00 24.00     0.018 A 
HETATM    7  N2  HUX A 803       2.226  69.011  66.255  1.00 27.04    -0.101 NA
HETATM    8  C14 HUX A 803       3.495  69.242  65.758  1.00 26.27     0.067 A 
HETATM    9  C2  HUX A 803       6.937  70.510  66.556  1.00 27.70     0.054 A 
HETATM   10  C17 HUX A 803       5.409  70.750  68.588  1.00 26.96     0.025 A 
HETATM   11  C15 HUX A 803       4.556  69.820  66.497  1.00 26.87     0.015 A 
HETATM   12  C5  HUX A 803       5.459  68.624  62.373  1.00 24.99     0.066 C 
HETATM   13  C13 HUX A 803       3.766  68.811  64.343  1.00 25.35    -0.006 A 
HETATM   14  C6  HUX A 803       4.511  67.559  61.796  1.00 25.41     0.014 C 
HETATM   15  C7  HUX A 803       4.558  66.112  62.634  1.00 25.50    -0.019 C 
HETATM   16  C12 HUX A 803       3.084  68.055  61.914  1.00 25.36     0.018 C 
HETATM   17  C8  HUX A 803       3.743  65.726  63.619  1.00 26.25    -0.083 C 
HETATM   18  C9  HUX A 803       2.650  66.698  64.000  1.00 26.66     0.043 C 
HETATM   19  C11 HUX A 803       2.720  68.120  63.461  1.00 26.07     0.027 C 
HETATM   20  C16 HUX A 803       4.348  70.249  67.929  1.00 26.80     0.017 A 
ENDROOT
BRANCH  17  21
HETATM   21  C18 HUX A 803       3.986  64.321  64.296  1.00 26.17     0.029 C 
HETATM   22  C10 HUX A 803       3.254  63.941  65.603  1.00 24.58     0.010 C 
ENDBRANCH  17  21
TORSDOF 1
