REMARK VINA RESULT:      -8.3      0.000      0.000
REMARK  1 active torsions:
REMARK  status: ('A' for Active; 'I' for Inactive)
REMARK    1  A    between atoms: C8_17  and  C18_19 
ROOT
HETATM    1 CL1  HUX A 803       1.925  63.329  69.836  1.00 25.95    -0.084 Cl
HETATM    2  C1  HUX A 803       2.540  64.618  68.982  1.00 28.50     0.036 A 
HETATM    3  N1  HUX A 803       4.494  65.393  65.921  1.00 24.85    -0.358 N 
ATOM      4  H1  HUX A 803       4.722  64.445  65.623  1.00  0.00     0.166 HD
HETATM    5  C3  HUX A 803       3.730  65.646  67.139  1.00 26.43     0.046 A 
HETATM    6  C4  HUX A 803       4.884  66.469  65.208  1.00 24.00     0.018 A 
HETATM    7  N2  HUX A 803       3.596  69.368  67.086  1.00 27.04    -0.101 NA
HETATM    8  C14 HUX A 803       3.869  68.051  66.765  1.00 26.27     0.067 A 
HETATM    9  C2  HUX A 803       3.353  64.465  67.750  1.00 27.70     0.054 A 
HETATM   10  C17 HUX A 803       2.240  66.020  69.443  1.00 26.96     0.025 A 
HETATM   11  C15 HUX A 803       3.445  66.934  67.525  1.00 26.87     0.015 A 
HETATM   12  C5  HUX A 803       5.703  66.077  63.861  1.00 24.99     0.066 C 
HETATM   13  C13 HUX A 803       4.638  67.800  65.498  1.00 25.35    -0.006 A 
HETATM   14  C6  HUX A 803       5.682  67.209  62.820  1.00 25.41     0.014 C 
HETATM   15  C7  HUX A 803       4.147  67.555  62.253  1.00 25.50    -0.019 C 
HETATM   16  C12 HUX A 803       6.175  68.485  63.471  1.00 25.36     0.018 C 
HETATM   17  C8  HUX A 803       3.316  68.497  62.704  1.00 26.25    -0.083 C 
HETATM   18  C9  HUX A 803       3.832  69.355  63.837  1.00 26.66     0.043 C 
HETATM   19  C11 HUX A 803       5.099  68.921  64.560  1.00 26.07     0.027 C 
HETATM   20  C16 HUX A 803       2.650  67.125  68.793  1.00 26.80     0.017 A 
ENDROOT
BRANCH  17  21
HETATM   21  C18 HUX A 803       1.891  68.632  62.038  1.00 26.17     0.029 C 
HETATM   22  C10 HUX A 803       0.786  69.480  62.709  1.00 24.58     0.010 C 
ENDBRANCH  17  21
TORSDOF 1
