REMARK VINA RESULT:      -3.2      0.000      0.000
REMARK  1 active torsions:
REMARK  status: ('A' for Active; 'I' for Inactive)
REMARK    1  A    between atoms: C8_17  and  C18_19 
ROOT
HETATM    1 CL1  HUX A 803       1.983  64.294  70.963  1.00 25.95    -0.084 Cl
HETATM    2  C1  HUX A 803       2.374  64.471  69.355  1.00 28.50     0.036 A 
HETATM    3  N1  HUX A 803       1.812  66.745  66.474  1.00 24.85    -0.358 N 
ATOM      4  H1  HUX A 803       1.150  67.394  66.899  1.00  0.00     0.166 HD
HETATM    5  C3  HUX A 803       2.341  65.603  67.213  1.00 26.43     0.046 A 
HETATM    6  C4  HUX A 803       2.238  66.903  65.203  1.00 24.00     0.018 A 
HETATM    7  N2  HUX A 803       4.555  64.095  64.625  1.00 27.04    -0.101 NA
HETATM    8  C14 HUX A 803       3.654  64.916  65.277  1.00 26.27     0.067 A 
HETATM    9  C2  HUX A 803       1.865  65.580  68.510  1.00 27.70     0.054 A 
HETATM   10  C17 HUX A 803       3.319  63.490  68.712  1.00 26.96     0.025 A 
HETATM   11  C15 HUX A 803       3.223  64.736  66.614  1.00 26.87     0.015 A 
HETATM   12  C5  HUX A 803       1.611  68.216  64.481  1.00 24.99     0.066 C 
HETATM   13  C13 HUX A 803       3.131  66.101  64.514  1.00 25.35    -0.006 A 
HETATM   14  C6  HUX A 803       2.460  68.681  63.286  1.00 25.41     0.014 C 
HETATM   15  C7  HUX A 803       3.996  69.177  63.723  1.00 25.50    -0.019 C 
HETATM   16  C12 HUX A 803       2.660  67.514  62.341  1.00 25.36     0.018 C 
HETATM   17  C8  HUX A 803       5.111  68.443  63.716  1.00 26.25    -0.083 C 
HETATM   18  C9  HUX A 803       4.967  67.015  63.241  1.00 26.66     0.043 C 
HETATM   19  C11 HUX A 803       3.567  66.438  63.084  1.00 26.07     0.027 C 
HETATM   20  C16 HUX A 803       3.734  63.578  67.435  1.00 26.80     0.017 A 
ENDROOT
BRANCH  17  21
HETATM   21  C18 HUX A 803       6.459  69.108  64.200  1.00 26.17     0.029 C 
HETATM   22  C10 HUX A 803       6.541  69.810  65.575  1.00 24.58     0.010 C 
ENDBRANCH  17  21
TORSDOF 1
