REMARK VINA RESULT:      -5.9      0.000      0.000
REMARK  1 active torsions:
REMARK  status: ('A' for Active; 'I' for Inactive)
REMARK    1  A    between atoms: C8_17  and  C18_19 
ROOT
HETATM    1 CL1  HUX A 803       3.624  63.194  70.963  1.00 25.95    -0.084 Cl
HETATM    2  C1  HUX A 803       3.417  63.722  69.398  1.00 28.50     0.036 A 
HETATM    3  N1  HUX A 803       2.097  66.607  67.469  1.00 24.85    -0.358 N 
ATOM      4  H1  HUX A 803       1.714  67.161  68.234  1.00  0.00     0.166 HD
HETATM    5  C3  HUX A 803       2.728  65.312  67.705  1.00 26.43     0.046 A 
HETATM    6  C4  HUX A 803       2.043  67.038  66.191  1.00 24.00     0.018 A 
HETATM    7  N2  HUX A 803       3.656  64.372  64.222  1.00 27.04    -0.101 NA
HETATM    8  C14 HUX A 803       3.155  65.048  65.319  1.00 26.27     0.067 A 
HETATM    9  C2  HUX A 803       2.761  65.008  69.052  1.00 27.70     0.054 A 
HETATM   10  C17 HUX A 803       3.943  62.887  68.261  1.00 26.96     0.025 A 
HETATM   11  C15 HUX A 803       3.226  64.580  66.654  1.00 26.87     0.015 A 
HETATM   12  C5  HUX A 803       1.347  68.498  66.042  1.00 24.99     0.066 C 
HETATM   13  C13 HUX A 803       2.525  66.390  65.068  1.00 25.35    -0.006 A 
HETATM   14  C6  HUX A 803       1.746  69.199  64.732  1.00 25.41     0.014 C 
HETATM   15  C7  HUX A 803       3.381  69.539  64.639  1.00 25.50    -0.019 C 
HETATM   16  C12 HUX A 803       1.453  68.273  63.570  1.00 25.36     0.018 C 
HETATM   17  C8  HUX A 803       4.325  68.795  64.059  1.00 26.25    -0.083 C 
HETATM   18  C9  HUX A 803       3.858  67.518  63.400  1.00 26.66     0.043 C 
HETATM   19  C11 HUX A 803       2.442  67.031  63.678  1.00 26.07     0.027 C 
HETATM   20  C16 HUX A 803       3.868  63.251  66.968  1.00 26.80     0.017 A 
ENDROOT
BRANCH  17  21
HETATM   21  C18 HUX A 803       5.822  69.294  64.114  1.00 26.17     0.029 C 
HETATM   22  C10 HUX A 803       6.377  69.981  65.383  1.00 24.58     0.010 C 
ENDBRANCH  17  21
TORSDOF 1
