REMARK VINA RESULT:      -6.3      0.000      0.000
REMARK  1 active torsions:
REMARK  status: ('A' for Active; 'I' for Inactive)
REMARK    1  A    between atoms: C8_17  and  C18_19 
ROOT
HETATM    1 CL1  HUX A 803       2.125  64.234  70.963  1.00 25.95    -0.084 Cl
HETATM    2  C1  HUX A 803       2.508  64.519  69.369  1.00 28.50     0.036 A 
HETATM    3  N1  HUX A 803       1.713  66.828  66.571  1.00 24.85    -0.358 N 
ATOM      4  H1  HUX A 803       0.978  67.380  67.012  1.00  0.00     0.166 HD
HETATM    5  C3  HUX A 803       2.364  65.725  67.272  1.00 26.43     0.046 A 
HETATM    6  C4  HUX A 803       2.129  67.085  65.314  1.00 24.00     0.018 A 
HETATM    7  N2  HUX A 803       4.758  64.586  64.656  1.00 27.04    -0.101 NA
HETATM    8  C14 HUX A 803       3.763  65.271  65.328  1.00 26.27     0.067 A 
HETATM    9  C2  HUX A 803       1.882  65.596  68.561  1.00 27.70     0.054 A 
HETATM   10  C17 HUX A 803       3.564  63.679  68.700  1.00 26.96     0.025 A 
HETATM   11  C15 HUX A 803       3.344  64.989  66.651  1.00 26.87     0.015 A 
HETATM   12  C5  HUX A 803       1.362  68.345  64.635  1.00 24.99     0.066 C 
HETATM   13  C13 HUX A 803       3.114  66.419  64.605  1.00 25.35    -0.006 A 
HETATM   14  C6  HUX A 803       2.162  68.952  63.471  1.00 25.41     0.014 C 
HETATM   15  C7  HUX A 803       3.628  69.603  63.947  1.00 25.50    -0.019 C 
HETATM   16  C12 HUX A 803       2.503  67.855  62.483  1.00 25.36     0.018 C 
HETATM   17  C8  HUX A 803       4.820  69.002  63.926  1.00 26.25    -0.083 C 
HETATM   18  C9  HUX A 803       4.844  67.587  63.393  1.00 26.66     0.043 C 
HETATM   19  C11 HUX A 803       3.521  66.861  63.195  1.00 26.07     0.027 C 
HETATM   20  C16 HUX A 803       3.977  63.865  67.433  1.00 26.80     0.017 A 
ENDROOT
BRANCH  17  21
HETATM   21  C18 HUX A 803       6.078  69.796  64.453  1.00 26.17     0.029 C 
HETATM   22  C10 HUX A 803       6.171  70.231  65.933  1.00 24.58     0.010 C 
ENDBRANCH  17  21
TORSDOF 1
