REMARK VINA RESULT:      -4.4      0.000      0.000
REMARK  1 active torsions:
REMARK  status: ('A' for Active; 'I' for Inactive)
REMARK    1  A    between atoms: C8_17  and  C18_19 
ROOT
HETATM    1 CL1  HUX A 803       1.922  64.632  70.963  1.00 25.95    -0.084 Cl
HETATM    2  C1  HUX A 803       2.328  64.823  69.361  1.00 28.50     0.036 A 
HETATM    3  N1  HUX A 803       1.669  67.036  66.453  1.00 24.85    -0.358 N 
ATOM      4  H1  HUX A 803       0.960  67.644  66.861  1.00  0.00     0.166 HD
HETATM    5  C3  HUX A 803       2.258  65.936  67.209  1.00 26.43     0.046 A 
HETATM    6  C4  HUX A 803       2.105  67.213  65.188  1.00 24.00     0.018 A 
HETATM    7  N2  HUX A 803       4.608  64.557  64.669  1.00 27.04    -0.101 NA
HETATM    8  C14 HUX A 803       3.645  65.322  65.300  1.00 26.27     0.067 A 
HETATM    9  C2  HUX A 803       1.763  65.891  68.498  1.00 27.70     0.054 A 
HETATM   10  C17 HUX A 803       3.345  63.901  68.740  1.00 26.96     0.025 A 
HETATM   11  C15 HUX A 803       3.204  65.123  66.631  1.00 26.87     0.015 A 
HETATM   12  C5  HUX A 803       1.407  68.477  64.446  1.00 24.99     0.066 C 
HETATM   13  C13 HUX A 803       3.059  66.466  64.520  1.00 25.35    -0.006 A 
HETATM   14  C6  HUX A 803       2.244  68.988  63.261  1.00 25.41     0.014 C 
HETATM   15  C7  HUX A 803       3.738  69.586  63.719  1.00 25.50    -0.019 C 
HETATM   16  C12 HUX A 803       2.535  67.830  62.328  1.00 25.36     0.018 C 
HETATM   17  C8  HUX A 803       4.898  68.925  63.736  1.00 26.25    -0.083 C 
HETATM   18  C9  HUX A 803       4.854  67.488  63.269  1.00 26.66     0.043 C 
HETATM   19  C11 HUX A 803       3.497  66.821  63.094  1.00 26.07     0.027 C 
HETATM   20  C16 HUX A 803       3.775  64.007  67.470  1.00 26.80     0.017 A 
ENDROOT
BRANCH  17  21
HETATM   21  C18 HUX A 803       6.191  69.679  64.236  1.00 26.17     0.029 C 
HETATM   22  C10 HUX A 803       6.275  70.225  65.680  1.00 24.58     0.010 C 
ENDBRANCH  17  21
TORSDOF 1
