REMARK VINA RESULT:      -7.7      0.000      0.000
REMARK  1 active torsions:
REMARK  status: ('A' for Active; 'I' for Inactive)
REMARK    1  A    between atoms: C8_17  and  C18_19 
ROOT
HETATM    1 CL1  HUX A 803       7.936  71.639  68.872  1.00 25.95    -0.084 Cl
HETATM    2  C1  HUX A 803       6.712  71.033  67.922  1.00 28.50     0.036 A 
HETATM    3  N1  HUX A 803       6.082  69.712  64.510  1.00 24.85    -0.358 N 
ATOM      4  H1  HUX A 803       7.000  69.872  64.095  1.00  0.00     0.166 HD
HETATM    5  C3  HUX A 803       5.789  70.099  65.886  1.00 26.43     0.046 A 
HETATM    6  C4  HUX A 803       5.085  69.131  63.810  1.00 24.00     0.018 A 
HETATM    7  N2  HUX A 803       2.236  69.009  66.147  1.00 27.04    -0.101 NA
HETATM    8  C14 HUX A 803       3.505  69.276  65.665  1.00 26.27     0.067 A 
HETATM    9  C2  HUX A 803       6.901  70.638  66.504  1.00 27.70     0.054 A 
HETATM   10  C17 HUX A 803       5.343  70.833  68.518  1.00 26.96     0.025 A 
HETATM   11  C15 HUX A 803       4.540  69.882  66.417  1.00 26.87     0.015 A 
HETATM   12  C5  HUX A 803       5.523  68.715  62.303  1.00 24.99     0.066 C 
HETATM   13  C13 HUX A 803       3.803  68.854  64.253  1.00 25.35    -0.006 A 
HETATM   14  C6  HUX A 803       4.612  67.625  61.714  1.00 25.41     0.014 C 
HETATM   15  C7  HUX A 803       4.689  66.179  62.552  1.00 25.50    -0.019 C 
HETATM   16  C12 HUX A 803       3.171  68.081  61.816  1.00 25.36     0.018 C 
HETATM   17  C8  HUX A 803       3.874  65.770  63.527  1.00 26.25    -0.083 C 
HETATM   18  C9  HUX A 803       2.750  66.711  63.896  1.00 26.66     0.043 C 
HETATM   19  C11 HUX A 803       2.787  68.135  63.359  1.00 26.07     0.027 C 
HETATM   20  C16 HUX A 803       4.304  70.304  67.846  1.00 26.80     0.017 A 
ENDROOT
BRANCH  17  21
HETATM   21  C18 HUX A 803       4.148  64.371  64.206  1.00 26.17     0.029 C 
HETATM   22  C10 HUX A 803       3.109  63.745  65.164  1.00 24.58     0.010 C 
ENDBRANCH  17  21
TORSDOF 1
