REMARK VINA RESULT:      -2.6      0.000      0.000
REMARK  1 active torsions:
REMARK  status: ('A' for Active; 'I' for Inactive)
REMARK    1  A    between atoms: C8_17  and  C18_19 
ROOT
HETATM    1 CL1  HUX A 803       1.392  63.117  70.951  1.00 25.95    -0.084 Cl
HETATM    2  C1  HUX A 803       1.922  63.635  69.461  1.00 28.50     0.036 A 
HETATM    3  N1  HUX A 803       1.907  66.630  67.267  1.00 24.85    -0.358 N 
ATOM      4  H1  HUX A 803       1.317  67.246  67.826  1.00  0.00     0.166 HD
HETATM    5  C3  HUX A 803       2.210  65.268  67.694  1.00 26.43     0.046 A 
HETATM    6  C4  HUX A 803       2.443  67.039  66.098  1.00 24.00     0.018 A 
HETATM    7  N2  HUX A 803       4.367  64.142  64.874  1.00 27.04    -0.101 NA
HETATM    8  C14 HUX A 803       3.548  64.901  65.690  1.00 26.27     0.067 A 
HETATM    9  C2  HUX A 803       1.642  64.990  68.923  1.00 27.70     0.054 A 
HETATM   10  C17 HUX A 803       2.760  62.714  68.613  1.00 26.96     0.025 A 
HETATM   11  C15 HUX A 803       2.999  64.455  66.917  1.00 26.87     0.015 A 
HETATM   12  C5  HUX A 803       2.067  68.575  65.728  1.00 24.99     0.066 C 
HETATM   13  C13 HUX A 803       3.259  66.310  65.251  1.00 25.35    -0.006 A 
HETATM   14  C6  HUX A 803       3.060  69.190  64.727  1.00 25.41     0.014 C 
HETATM   15  C7  HUX A 803       4.616  69.308  65.331  1.00 25.50    -0.019 C 
HETATM   16  C12 HUX A 803       3.158  68.288  63.514  1.00 25.36     0.018 C 
HETATM   17  C8  HUX A 803       5.610  68.433  65.166  1.00 26.25    -0.083 C 
HETATM   18  C9  HUX A 803       5.297  67.216  64.326  1.00 26.66     0.043 C 
HETATM   19  C11 HUX A 803       3.843  66.928  63.976  1.00 26.07     0.027 C 
HETATM   20  C16 HUX A 803       3.275  63.059  67.419  1.00 26.80     0.017 A 
ENDROOT
BRANCH  17  21
HETATM   21  C18 HUX A 803       7.001  68.729  65.852  1.00 26.17     0.029 C 
HETATM   22  C10 HUX A 803       7.177  69.956  66.776  1.00 24.58     0.010 C 
ENDBRANCH  17  21
TORSDOF 1
