REMARK VINA RESULT:     -10.1      0.000      0.000
REMARK  1 active torsions:
REMARK  status: ('A' for Active; 'I' for Inactive)
REMARK    1  A    between atoms: C8_17  and  C18_19 
ROOT
HETATM    1 CL1  HUX A 803       8.142  71.518  68.922  1.00 25.95    -0.084 Cl
HETATM    2  C1  HUX A 803       6.874  70.961  68.001  1.00 28.50     0.036 A 
HETATM    3  N1  HUX A 803       6.067  69.876  64.542  1.00 24.85    -0.358 N 
ATOM      4  H1  HUX A 803       6.957  70.082  64.089  1.00  0.00     0.166 HD
HETATM    5  C3  HUX A 803       5.847  70.159  65.957  1.00 26.43     0.046 A 
HETATM    6  C4  HUX A 803       5.039  69.330  63.860  1.00 24.00     0.018 A 
HETATM    7  N2  HUX A 803       2.331  68.992  66.339  1.00 27.04    -0.101 NA
HETATM    8  C14 HUX A 803       3.566  69.314  65.807  1.00 26.27     0.067 A 
HETATM    9  C2  HUX A 803       6.986  70.671  66.549  1.00 27.70     0.054 A 
HETATM   10  C17 HUX A 803       5.544  70.695  68.657  1.00 26.96     0.025 A 
HETATM   11  C15 HUX A 803       4.634  69.883  66.541  1.00 26.87     0.015 A 
HETATM   12  C5  HUX A 803       5.395  69.031  62.304  1.00 24.99     0.066 C 
HETATM   13  C13 HUX A 803       3.788  69.000  64.353  1.00 25.35    -0.006 A 
HETATM   14  C6  HUX A 803       4.466  67.970  61.690  1.00 25.41     0.014 C 
HETATM   15  C7  HUX A 803       4.610  66.469  62.415  1.00 25.50    -0.019 C 
HETATM   16  C12 HUX A 803       3.027  68.393  61.906  1.00 25.36     0.018 C 
HETATM   17  C8  HUX A 803       3.858  65.978  63.403  1.00 26.25    -0.083 C 
HETATM   18  C9  HUX A 803       2.745  66.870  63.902  1.00 26.66     0.043 C 
HETATM   19  C11 HUX A 803       2.732  68.329  63.468  1.00 26.07     0.027 C 
HETATM   20  C16 HUX A 803       4.476  70.197  68.008  1.00 26.80     0.017 A 
ENDROOT
BRANCH  17  21
HETATM   21  C18 HUX A 803       4.189  64.539  63.961  1.00 26.17     0.029 C 
HETATM   22  C10 HUX A 803       3.194  63.808  64.892  1.00 24.58     0.010 C 
ENDBRANCH  17  21
TORSDOF 1
