REMARK VINA RESULT:      -4.9      0.000      0.000
REMARK  1 active torsions:
REMARK  status: ('A' for Active; 'I' for Inactive)
REMARK    1  A    between atoms: C8_17  and  C18_19 
ROOT
HETATM    1 CL1  HUX A 803       2.718  63.436  70.961  1.00 25.95    -0.084 Cl
HETATM    2  C1  HUX A 803       2.850  63.859  69.358  1.00 28.50     0.036 A 
HETATM    3  N1  HUX A 803       1.936  66.578  66.999  1.00 24.85    -0.358 N 
ATOM      4  H1  HUX A 803       1.385  67.165  67.624  1.00  0.00     0.166 HD
HETATM    5  C3  HUX A 803       2.522  65.321  67.453  1.00 26.43     0.046 A 
HETATM    6  C4  HUX A 803       2.155  66.928  65.715  1.00 24.00     0.018 A 
HETATM    7  N2  HUX A 803       4.208  64.199  64.326  1.00 27.04    -0.101 NA
HETATM    8  C14 HUX A 803       3.466  64.924  65.240  1.00 26.27     0.067 A 
HETATM    9  C2  HUX A 803       2.264  65.101  68.792  1.00 27.70     0.054 A 
HETATM   10  C17 HUX A 803       3.628  62.973  68.420  1.00 26.96     0.025 A 
HETATM   11  C15 HUX A 803       3.251  64.541  66.586  1.00 26.87     0.015 A 
HETATM   12  C5  HUX A 803       1.484  68.353  65.320  1.00 24.99     0.066 C 
HETATM   13  C13 HUX A 803       2.884  66.228  64.769  1.00 25.35    -0.006 A 
HETATM   14  C6  HUX A 803       2.148  68.985  64.085  1.00 25.41     0.014 C 
HETATM   15  C7  HUX A 803       3.758  69.371  64.328  1.00 25.50    -0.019 C 
HETATM   16  C12 HUX A 803       2.134  67.981  62.951  1.00 25.36     0.018 C 
HETATM   17  C8  HUX A 803       4.819  68.623  64.019  1.00 26.25    -0.083 C 
HETATM   18  C9  HUX A 803       4.530  67.293  63.360  1.00 26.66     0.043 C 
HETATM   19  C11 HUX A 803       3.097  66.780  63.355  1.00 26.07     0.027 C 
HETATM   20  C16 HUX A 803       3.832  63.256  67.121  1.00 26.80     0.017 A 
ENDROOT
BRANCH  17  21
HETATM   21  C18 HUX A 803       6.259  69.171  64.365  1.00 26.17     0.029 C 
HETATM   22  C10 HUX A 803       6.467  70.144  65.549  1.00 24.58     0.010 C 
ENDBRANCH  17  21
TORSDOF 1
