REMARK VINA RESULT:      -4.0      0.000      0.000
REMARK  1 active torsions:
REMARK  status: ('A' for Active; 'I' for Inactive)
REMARK    1  A    between atoms: C8_17  and  C18_19 
ROOT
HETATM    1 CL1  HUX A 803       2.288  63.250  70.932  1.00 25.95    -0.084 Cl
HETATM    2  C1  HUX A 803       2.601  63.735  69.372  1.00 28.50     0.036 A 
HETATM    3  N1  HUX A 803       1.790  66.445  66.966  1.00 24.85    -0.358 N 
ATOM      4  H1  HUX A 803       1.111  66.966  67.521  1.00  0.00     0.166 HD
HETATM    5  C3  HUX A 803       2.414  65.226  67.470  1.00 26.43     0.046 A 
HETATM    6  C4  HUX A 803       2.152  66.854  65.732  1.00 24.00     0.018 A 
HETATM    7  N2  HUX A 803       4.600  64.347  64.585  1.00 27.04    -0.101 NA
HETATM    8  C14 HUX A 803       3.681  64.980  65.403  1.00 26.27     0.067 A 
HETATM    9  C2  HUX A 803       1.995  64.942  68.756  1.00 27.70     0.054 A 
HETATM   10  C17 HUX A 803       3.572  62.946  68.533  1.00 26.96     0.025 A 
HETATM   11  C15 HUX A 803       3.318  64.537  66.698  1.00 26.87     0.015 A 
HETATM   12  C5  HUX A 803       1.422  68.232  65.279  1.00 24.99     0.066 C 
HETATM   13  C13 HUX A 803       3.060  66.247  64.883  1.00 25.35    -0.006 A 
HETATM   14  C6  HUX A 803       2.192  68.955  64.161  1.00 25.41     0.014 C 
HETATM   15  C7  HUX A 803       3.715  69.463  64.633  1.00 25.50    -0.019 C 
HETATM   16  C12 HUX A 803       2.418  67.991  63.016  1.00 25.36     0.018 C 
HETATM   17  C8  HUX A 803       4.868  68.814  64.459  1.00 26.25    -0.083 C 
HETATM   18  C9  HUX A 803       4.786  67.488  63.738  1.00 26.66     0.043 C 
HETATM   19  C11 HUX A 803       3.416  66.860  63.524  1.00 26.07     0.027 C 
HETATM   20  C16 HUX A 803       3.928  63.286  67.280  1.00 26.80     0.017 A 
ENDROOT
BRANCH  17  21
HETATM   21  C18 HUX A 803       6.195  69.466  65.012  1.00 26.17     0.029 C 
HETATM   22  C10 HUX A 803       6.762  70.756  64.376  1.00 24.58     0.010 C 
ENDBRANCH  17  21
TORSDOF 1
