REMARK VINA RESULT:      -6.1      0.000      0.000
REMARK  1 active torsions:
REMARK  status: ('A' for Active; 'I' for Inactive)
REMARK    1  A    between atoms: C8_17  and  C18_19 
ROOT
HETATM    1 CL1  HUX A 803       1.776  65.089  70.903  1.00 25.95    -0.084 Cl
HETATM    2  C1  HUX A 803       2.268  65.214  69.319  1.00 28.50     0.036 A 
HETATM    3  N1  HUX A 803       1.633  67.190  66.239  1.00 24.85    -0.358 N 
ATOM      4  H1  HUX A 803       0.856  67.765  66.565  1.00  0.00     0.166 HD
HETATM    5  C3  HUX A 803       2.253  66.186  67.099  1.00 26.43     0.046 A 
HETATM    6  C4  HUX A 803       2.134  67.324  64.994  1.00 24.00     0.018 A 
HETATM    7  N2  HUX A 803       4.855  64.844  64.797  1.00 27.04    -0.101 NA
HETATM    8  C14 HUX A 803       3.799  65.569  65.319  1.00 26.27     0.067 A 
HETATM    9  C2  HUX A 803       1.681  66.181  68.357  1.00 27.70     0.054 A 
HETATM   10  C17 HUX A 803       3.387  64.338  68.820  1.00 26.96     0.025 A 
HETATM   11  C15 HUX A 803       3.291  65.417  66.632  1.00 26.87     0.015 A 
HETATM   12  C5  HUX A 803       1.393  68.483  64.131  1.00 24.99     0.066 C 
HETATM   13  C13 HUX A 803       3.181  66.615  64.433  1.00 25.35    -0.006 A 
HETATM   14  C6  HUX A 803       2.264  68.985  62.967  1.00 25.41     0.014 C 
HETATM   15  C7  HUX A 803       3.677  69.724  63.473  1.00 25.50    -0.019 C 
HETATM   16  C12 HUX A 803       2.698  67.799  62.130  1.00 25.36     0.018 C 
HETATM   17  C8  HUX A 803       4.879  69.158  63.600  1.00 26.25    -0.083 C 
HETATM   18  C9  HUX A 803       4.972  67.696  63.226  1.00 26.66     0.043 C 
HETATM   19  C11 HUX A 803       3.682  66.916  63.015  1.00 26.07     0.027 C 
HETATM   20  C16 HUX A 803       3.888  64.400  67.573  1.00 26.80     0.017 A 
ENDROOT
BRANCH  17  21
HETATM   21  C18 HUX A 803       6.079  70.039  64.126  1.00 26.17     0.029 C 
HETATM   22  C10 HUX A 803       6.314  70.224  65.643  1.00 24.58     0.010 C 
ENDBRANCH  17  21
TORSDOF 1
