REMARK VINA RESULT:     -10.4      0.000      0.000
REMARK  1 active torsions:
REMARK  status: ('A' for Active; 'I' for Inactive)
REMARK    1  A    between atoms: C8_17  and  C18_19 
ROOT
HETATM    1 CL1  HUX A 803       8.052  71.284  69.073  1.00 25.95    -0.084 Cl
HETATM    2  C1  HUX A 803       6.776  70.776  68.134  1.00 28.50     0.036 A 
HETATM    3  N1  HUX A 803       5.996  69.621  64.692  1.00 24.85    -0.358 N 
ATOM      4  H1  HUX A 803       6.910  69.753  64.259  1.00  0.00     0.166 HD
HETATM    5  C3  HUX A 803       5.756  69.968  66.090  1.00 26.43     0.046 A 
HETATM    6  C4  HUX A 803       4.954  69.117  63.999  1.00 24.00     0.018 A 
HETATM    7  N2  HUX A 803       2.162  69.042  66.406  1.00 27.04    -0.101 NA
HETATM    8  C14 HUX A 803       3.430  69.266  65.900  1.00 26.27     0.067 A 
HETATM    9  C2  HUX A 803       6.909  70.427  66.697  1.00 27.70     0.054 A 
HETATM   10  C17 HUX A 803       5.414  70.619  68.759  1.00 26.96     0.025 A 
HETATM   11  C15 HUX A 803       4.512  69.791  66.646  1.00 26.87     0.015 A 
HETATM   12  C5  HUX A 803       5.332  68.740  62.465  1.00 24.99     0.066 C 
HETATM   13  C13 HUX A 803       3.671  68.886  64.466  1.00 25.35    -0.006 A 
HETATM   14  C6  HUX A 803       4.354  67.719  61.861  1.00 25.41     0.014 C 
HETATM   15  C7  HUX A 803       4.380  66.240  62.640  1.00 25.50    -0.019 C 
HETATM   16  C12 HUX A 803       2.940  68.241  62.019  1.00 25.36     0.018 C 
HETATM   17  C8  HUX A 803       3.571  65.833  63.621  1.00 26.25    -0.083 C 
HETATM   18  C9  HUX A 803       2.505  66.812  64.056  1.00 26.66     0.043 C 
HETATM   19  C11 HUX A 803       2.598  68.253  63.573  1.00 26.07     0.027 C 
HETATM   20  C16 HUX A 803       4.334  70.168  68.096  1.00 26.80     0.017 A 
ENDROOT
BRANCH  17  21
HETATM   21  C18 HUX A 803       3.792  64.397  64.239  1.00 26.17     0.029 C 
HETATM   22  C10 HUX A 803       3.079  63.985  65.547  1.00 24.58     0.010 C 
ENDBRANCH  17  21
TORSDOF 1
