REMARK VINA RESULT:      -3.4      0.000      0.000
REMARK  1 active torsions:
REMARK  status: ('A' for Active; 'I' for Inactive)
REMARK    1  A    between atoms: C8_17  and  C18_19 
ROOT
HETATM    1 CL1  HUX A 803       1.672  64.104  70.545  1.00 25.95    -0.084 Cl
HETATM    2  C1  HUX A 803       2.142  64.435  68.984  1.00 28.50     0.036 A 
HETATM    3  N1  HUX A 803       1.581  66.887  66.252  1.00 24.85    -0.358 N 
ATOM      4  H1  HUX A 803       0.849  67.453  66.681  1.00  0.00     0.166 HD
HETATM    5  C3  HUX A 803       2.150  65.729  66.935  1.00 26.43     0.046 A 
HETATM    6  C4  HUX A 803       2.068  67.176  65.027  1.00 24.00     0.018 A 
HETATM    7  N2  HUX A 803       4.618  64.592  64.388  1.00 27.04    -0.101 NA
HETATM    8  C14 HUX A 803       3.622  65.293  65.041  1.00 26.27     0.067 A 
HETATM    9  C2  HUX A 803       1.602  65.570  68.193  1.00 27.70     0.054 A 
HETATM   10  C17 HUX A 803       3.194  63.577  68.330  1.00 26.96     0.025 A 
HETATM   11  C15 HUX A 803       3.128  64.977  66.330  1.00 26.87     0.015 A 
HETATM   12  C5  HUX A 803       1.388  68.495  64.367  1.00 24.99     0.066 C 
HETATM   13  C13 HUX A 803       3.057  66.496  64.338  1.00 25.35    -0.006 A 
HETATM   14  C6  HUX A 803       2.268  69.112  63.268  1.00 25.41     0.014 C 
HETATM   15  C7  HUX A 803       3.735  69.678  63.839  1.00 25.50    -0.019 C 
HETATM   16  C12 HUX A 803       2.610  68.041  62.252  1.00 25.36     0.018 C 
HETATM   17  C8  HUX A 803       4.900  69.027  63.847  1.00 26.25    -0.083 C 
HETATM   18  C9  HUX A 803       4.891  67.635  63.257  1.00 26.66     0.043 C 
HETATM   19  C11 HUX A 803       3.550  66.976  62.968  1.00 26.07     0.027 C 
HETATM   20  C16 HUX A 803       3.675  63.796  67.093  1.00 26.80     0.017 A 
ENDROOT
BRANCH  17  21
HETATM   21  C18 HUX A 803       6.164  69.743  64.465  1.00 26.17     0.029 C 
HETATM   22  C10 HUX A 803       6.130  70.290  65.911  1.00 24.58     0.010 C 
ENDBRANCH  17  21
TORSDOF 1
