REMARK VINA RESULT:      -5.3      0.000      0.000
REMARK  1 active torsions:
REMARK  status: ('A' for Active; 'I' for Inactive)
REMARK    1  A    between atoms: C8_17  and  C18_19 
ROOT
HETATM    1 CL1  HUX A 803       2.005  64.381  70.882  1.00 25.95    -0.084 Cl
HETATM    2  C1  HUX A 803       2.384  64.637  69.282  1.00 28.50     0.036 A 
HETATM    3  N1  HUX A 803       1.656  66.951  66.471  1.00 24.85    -0.358 N 
ATOM      4  H1  HUX A 803       0.948  67.536  66.913  1.00  0.00     0.166 HD
HETATM    5  C3  HUX A 803       2.268  65.829  67.176  1.00 26.43     0.046 A 
HETATM    6  C4  HUX A 803       2.070  67.180  65.207  1.00 24.00     0.018 A 
HETATM    7  N2  HUX A 803       4.591  64.572  64.550  1.00 27.04    -0.101 NA
HETATM    8  C14 HUX A 803       3.631  65.303  65.224  1.00 26.27     0.067 A 
HETATM    9  C2  HUX A 803       1.794  65.731  68.470  1.00 27.70     0.054 A 
HETATM   10  C17 HUX A 803       3.399  63.749  68.612  1.00 26.96     0.025 A 
HETATM   11  C15 HUX A 803       3.213  65.049  66.553  1.00 26.87     0.015 A 
HETATM   12  C5  HUX A 803       1.348  68.465  64.524  1.00 24.99     0.066 C 
HETATM   13  C13 HUX A 803       3.021  66.469  64.496  1.00 25.35    -0.006 A 
HETATM   14  C6  HUX A 803       2.162  69.028  63.347  1.00 25.41     0.014 C 
HETATM   15  C7  HUX A 803       3.656  69.624  63.804  1.00 25.50    -0.019 C 
HETATM   16  C12 HUX A 803       2.449  67.910  62.366  1.00 25.36     0.018 C 
HETATM   17  C8  HUX A 803       4.823  68.975  63.778  1.00 26.25    -0.083 C 
HETATM   18  C9  HUX A 803       4.786  67.557  63.258  1.00 26.66     0.043 C 
HETATM   19  C11 HUX A 803       3.433  66.882  63.078  1.00 26.07     0.027 C 
HETATM   20  C16 HUX A 803       3.808  63.908  67.339  1.00 26.80     0.017 A 
ENDROOT
BRANCH  17  21
HETATM   21  C18 HUX A 803       6.117  69.723  64.286  1.00 26.17     0.029 C 
HETATM   22  C10 HUX A 803       6.206  70.241  65.740  1.00 24.58     0.010 C 
ENDBRANCH  17  21
TORSDOF 1
