REMARK VINA RESULT:      -3.9      0.000      0.000
REMARK  1 active torsions:
REMARK  status: ('A' for Active; 'I' for Inactive)
REMARK    1  A    between atoms: C8_17  and  C18_19 
ROOT
HETATM    1 CL1  HUX A 803       2.720  64.250  70.455  1.00 25.95    -0.084 Cl
HETATM    2  C1  HUX A 803       2.806  64.588  68.828  1.00 28.50     0.036 A 
HETATM    3  N1  HUX A 803       1.751  67.136  66.342  1.00 24.85    -0.358 N 
ATOM      4  H1  HUX A 803       1.191  67.739  66.946  1.00  0.00     0.166 HD
HETATM    5  C3  HUX A 803       2.391  65.928  66.853  1.00 26.43     0.046 A 
HETATM    6  C4  HUX A 803       1.934  67.422  65.036  1.00 24.00     0.018 A 
HETATM    7  N2  HUX A 803       4.055  64.691  63.758  1.00 27.04    -0.101 NA
HETATM    8  C14 HUX A 803       3.306  65.441  64.646  1.00 26.27     0.067 A 
HETATM    9  C2  HUX A 803       2.166  65.774  68.207  1.00 27.70     0.054 A 
HETATM   10  C17 HUX A 803       3.597  63.678  67.925  1.00 26.96     0.025 A 
HETATM   11  C15 HUX A 803       3.130  65.127  66.016  1.00 26.87     0.015 A 
HETATM   12  C5  HUX A 803       1.204  68.798  64.578  1.00 24.99     0.066 C 
HETATM   13  C13 HUX A 803       2.668  66.695  64.116  1.00 25.35    -0.006 A 
HETATM   14  C6  HUX A 803       1.822  69.382  63.296  1.00 25.41     0.014 C 
HETATM   15  C7  HUX A 803       3.421  69.837  63.483  1.00 25.50    -0.019 C 
HETATM   16  C12 HUX A 803       1.822  68.316  62.220  1.00 25.36     0.018 C 
HETATM   17  C8  HUX A 803       4.502  69.110  63.194  1.00 26.25    -0.083 C 
HETATM   18  C9  HUX A 803       4.248  67.736  62.616  1.00 26.66     0.043 C 
HETATM   19  C11 HUX A 803       2.834  67.174  62.669  1.00 26.07     0.027 C 
HETATM   20  C16 HUX A 803       3.767  63.894  66.608  1.00 26.80     0.017 A 
ENDROOT
BRANCH  17  21
HETATM   21  C18 HUX A 803       5.927  69.726  63.479  1.00 26.17     0.029 C 
HETATM   22  C10 HUX A 803       6.278  70.285  64.877  1.00 24.58     0.010 C 
ENDBRANCH  17  21
TORSDOF 1
