REMARK VINA RESULT:     -10.8      0.000      0.000
REMARK  1 active torsions:
REMARK  status: ('A' for Active; 'I' for Inactive)
REMARK    1  A    between atoms: C8_17  and  C18_19 
ROOT
HETATM    1 CL1  HUX A 803       8.111  71.347  69.109  1.00 25.95    -0.084 Cl
HETATM    2  C1  HUX A 803       6.842  70.833  68.162  1.00 28.50     0.036 A 
HETATM    3  N1  HUX A 803       6.045  69.876  64.665  1.00 24.85    -0.358 N 
ATOM      4  H1  HUX A 803       6.939  70.089  64.223  1.00  0.00     0.166 HD
HETATM    5  C3  HUX A 803       5.820  70.112  66.087  1.00 26.43     0.046 A 
HETATM    6  C4  HUX A 803       5.016  69.363  63.958  1.00 24.00     0.018 A 
HETATM    7  N2  HUX A 803       2.291  68.964  66.410  1.00 27.04    -0.101 NA
HETATM    8  C14 HUX A 803       3.532  69.294  65.896  1.00 26.27     0.067 A 
HETATM    9  C2  HUX A 803       6.960  70.593  66.702  1.00 27.70     0.054 A 
HETATM   10  C17 HUX A 803       5.507  70.557  68.802  1.00 26.96     0.025 A 
HETATM   11  C15 HUX A 803       4.602  69.827  66.655  1.00 26.87     0.015 A 
HETATM   12  C5  HUX A 803       5.378  69.114  62.395  1.00 24.99     0.066 C 
HETATM   13  C13 HUX A 803       3.760  69.027  64.434  1.00 25.35    -0.006 A 
HETATM   14  C6  HUX A 803       4.443  68.084  61.740  1.00 25.41     0.014 C 
HETATM   15  C7  HUX A 803       4.569  66.558  62.414  1.00 25.50    -0.019 C 
HETATM   16  C12 HUX A 803       3.006  68.512  61.963  1.00 25.36     0.018 C 
HETATM   17  C8  HUX A 803       3.808  66.039  63.380  1.00 26.25    -0.083 C 
HETATM   18  C9  HUX A 803       2.700  66.924  63.903  1.00 26.66     0.043 C 
HETATM   19  C11 HUX A 803       2.702  68.397  63.520  1.00 26.07     0.027 C 
HETATM   20  C16 HUX A 803       4.438  70.092  68.131  1.00 26.80     0.017 A 
ENDROOT
BRANCH  17  21
HETATM   21  C18 HUX A 803       4.122  64.579  63.890  1.00 26.17     0.029 C 
HETATM   22  C10 HUX A 803       3.188  63.882  64.906  1.00 24.58     0.010 C 
ENDBRANCH  17  21
TORSDOF 1
