REMARK VINA RESULT:     -10.4      0.000      0.000
REMARK  1 active torsions:
REMARK  status: ('A' for Active; 'I' for Inactive)
REMARK    1  A    between atoms: C8_17  and  C18_19 
ROOT
HETATM    1 CL1  HUX A 803       8.090  71.459  68.978  1.00 25.95    -0.084 Cl
HETATM    2  C1  HUX A 803       6.813  70.902  68.069  1.00 28.50     0.036 A 
HETATM    3  N1  HUX A 803       5.983  69.780  64.627  1.00 24.85    -0.358 N 
ATOM      4  H1  HUX A 803       6.874  69.971  64.168  1.00  0.00     0.166 HD
HETATM    5  C3  HUX A 803       5.771  70.084  66.039  1.00 26.43     0.046 A 
HETATM    6  C4  HUX A 803       4.947  69.235  63.955  1.00 24.00     0.018 A 
HETATM    7  N2  HUX A 803       2.245  68.956  66.447  1.00 27.04    -0.101 NA
HETATM    8  C14 HUX A 803       3.481  69.260  65.907  1.00 26.27     0.067 A 
HETATM    9  C2  HUX A 803       6.917  70.592  66.620  1.00 27.70     0.054 A 
HETATM   10  C17 HUX A 803       5.483  70.658  68.733  1.00 26.96     0.025 A 
HETATM   11  C15 HUX A 803       4.558  69.827  66.630  1.00 26.87     0.015 A 
HETATM   12  C5  HUX A 803       5.296  68.913  62.402  1.00 24.99     0.066 C 
HETATM   13  C13 HUX A 803       3.696  68.924  64.457  1.00 25.35    -0.006 A 
HETATM   14  C6  HUX A 803       4.354  67.853  61.805  1.00 25.41     0.014 C 
HETATM   15  C7  HUX A 803       4.486  66.361  62.549  1.00 25.50    -0.019 C 
HETATM   16  C12 HUX A 803       2.920  68.293  62.020  1.00 25.36     0.018 C 
HETATM   17  C8  HUX A 803       3.733  65.889  63.545  1.00 26.25    -0.083 C 
HETATM   18  C9  HUX A 803       2.630  66.799  64.036  1.00 26.66     0.043 C 
HETATM   19  C11 HUX A 803       2.630  68.253  63.584  1.00 26.07     0.027 C 
HETATM   20  C16 HUX A 803       4.407  70.162  68.094  1.00 26.80     0.017 A 
ENDROOT
BRANCH  17  21
HETATM   21  C18 HUX A 803       4.051  64.455  64.122  1.00 26.17     0.029 C 
HETATM   22  C10 HUX A 803       3.056  63.750  65.073  1.00 24.58     0.010 C 
ENDBRANCH  17  21
TORSDOF 1
