REMARK VINA RESULT:      -3.8      0.000      0.000
REMARK  1 active torsions:
REMARK  status: ('A' for Active; 'I' for Inactive)
REMARK    1  A    between atoms: C8_17  and  C18_19 
ROOT
HETATM    1 CL1  HUX A 803       1.646  65.267  69.721  1.00 25.95    -0.084 Cl
HETATM    2  C1  HUX A 803       2.134  65.515  68.149  1.00 28.50     0.036 A 
HETATM    3  N1  HUX A 803       1.563  67.783  65.265  1.00 24.85    -0.358 N 
ATOM      4  H1  HUX A 803       0.811  68.357  65.648  1.00  0.00     0.166 HD
HETATM    5  C3  HUX A 803       2.146  66.683  66.026  1.00 26.43     0.046 A 
HETATM    6  C4  HUX A 803       2.063  68.009  64.032  1.00 24.00     0.018 A 
HETATM    7  N2  HUX A 803       4.681  65.451  63.590  1.00 27.04    -0.101 NA
HETATM    8  C14 HUX A 803       3.658  66.167  64.185  1.00 26.27     0.067 A 
HETATM    9  C2  HUX A 803       1.581  66.587  67.283  1.00 27.70     0.054 A 
HETATM   10  C17 HUX A 803       3.215  64.644  67.565  1.00 26.96     0.025 A 
HETATM   11  C15 HUX A 803       3.151  65.918  65.483  1.00 26.87     0.015 A 
HETATM   12  C5  HUX A 803       1.364  69.269  63.284  1.00 24.99     0.066 C 
HETATM   13  C13 HUX A 803       3.078  67.312  63.401  1.00 25.35    -0.006 A 
HETATM   14  C6  HUX A 803       2.248  69.839  62.162  1.00 25.41     0.014 C 
HETATM   15  C7  HUX A 803       3.693  70.473  62.719  1.00 25.50    -0.019 C 
HETATM   16  C12 HUX A 803       2.631  68.717  61.218  1.00 25.36     0.018 C 
HETATM   17  C8  HUX A 803       4.872  69.850  62.785  1.00 26.25    -0.083 C 
HETATM   18  C9  HUX A 803       4.904  68.426  62.281  1.00 26.66     0.043 C 
HETATM   19  C11 HUX A 803       3.582  67.719  62.012  1.00 26.07     0.027 C 
HETATM   20  C16 HUX A 803       3.711  64.798  66.324  1.00 26.80     0.017 A 
ENDROOT
BRANCH  17  21
HETATM   21  C18 HUX A 803       6.109  70.633  63.377  1.00 26.17     0.029 C 
HETATM   22  C10 HUX A 803       6.560  70.402  64.837  1.00 24.58     0.010 C 
ENDBRANCH  17  21
TORSDOF 1
