REMARK VINA RESULT:      -2.0      0.000      0.000
REMARK  1 active torsions:
REMARK  status: ('A' for Active; 'I' for Inactive)
REMARK    1  A    between atoms: C8_17  and  C18_19 
ROOT
HETATM    1 CL1  HUX A 803       2.902  71.220  69.986  1.00 25.95    -0.084 Cl
HETATM    2  C1  HUX A 803       2.672  70.542  68.484  1.00 28.50     0.036 A 
HETATM    3  N1  HUX A 803       4.503  69.773  65.347  1.00 24.85    -0.358 N 
ATOM      4  H1  HUX A 803       5.399  70.211  65.563  1.00  0.00     0.166 HD
HETATM    5  C3  HUX A 803       3.385  69.821  66.283  1.00 26.43     0.046 A 
HETATM    6  C4  HUX A 803       4.299  69.124  64.181  1.00 24.00     0.018 A 
HETATM    7  N2  HUX A 803       0.816  67.930  64.360  1.00 27.04    -0.101 NA
HETATM    8  C14 HUX A 803       1.989  68.561  64.733  1.00 26.27     0.067 A 
HETATM    9  C2  HUX A 803       3.736  70.471  67.451  1.00 27.70     0.054 A 
HETATM   10  C17 HUX A 803       1.338  69.932  68.145  1.00 26.96     0.025 A 
HETATM   11  C15 HUX A 803       2.185  69.233  65.963  1.00 26.87     0.015 A 
HETATM   12  C5  HUX A 803       5.611  69.106  63.225  1.00 24.99     0.066 C 
HETATM   13  C13 HUX A 803       3.141  68.488  63.769  1.00 25.35    -0.006 A 
HETATM   14  C6  HUX A 803       5.560  67.968  62.191  1.00 25.41     0.014 C 
HETATM   15  C7  HUX A 803       5.567  66.447  62.886  1.00 25.50    -0.019 C 
HETATM   16  C12 HUX A 803       4.258  68.061  61.422  1.00 25.36     0.018 C 
HETATM   17  C8  HUX A 803       4.507  65.690  63.177  1.00 26.25    -0.083 C 
HETATM   18  C9  HUX A 803       3.156  66.268  62.820  1.00 26.66     0.043 C 
HETATM   19  C11 HUX A 803       3.073  67.739  62.434  1.00 26.07     0.027 C 
HETATM   20  C16 HUX A 803       1.071  69.317  66.978  1.00 26.80     0.017 A 
ENDROOT
BRANCH  17  21
HETATM   21  C18 HUX A 803       4.742  64.288  63.862  1.00 26.17     0.029 C 
HETATM   22  C10 HUX A 803       3.553  63.481  64.432  1.00 24.58     0.010 C 
ENDBRANCH  17  21
TORSDOF 1
