REMARK VINA RESULT:      -6.4      0.000      0.000
REMARK  1 active torsions:
REMARK  status: ('A' for Active; 'I' for Inactive)
REMARK    1  A    between atoms: C8_17  and  C18_19 
ROOT
HETATM    1 CL1  HUX A 803       2.481  64.254  70.954  1.00 25.95    -0.084 Cl
HETATM    2  C1  HUX A 803       2.724  64.531  69.332  1.00 28.50     0.036 A 
HETATM    3  N1  HUX A 803       1.877  66.959  66.652  1.00 24.85    -0.358 N 
ATOM      4  H1  HUX A 803       1.248  67.570  67.172  1.00  0.00     0.166 HD
HETATM    5  C3  HUX A 803       2.485  65.785  67.272  1.00 26.43     0.046 A 
HETATM    6  C4  HUX A 803       2.185  67.198  65.361  1.00 24.00     0.018 A 
HETATM    7  N2  HUX A 803       4.478  64.471  64.413  1.00 27.04    -0.101 NA
HETATM    8  C14 HUX A 803       3.628  65.237  65.190  1.00 26.27     0.067 A 
HETATM    9  C2  HUX A 803       2.127  65.678  68.602  1.00 27.70     0.054 A 
HETATM   10  C17 HUX A 803       3.620  63.607  68.550  1.00 26.96     0.025 A 
HETATM   11  C15 HUX A 803       3.321  64.971  66.546  1.00 26.87     0.015 A 
HETATM   12  C5  HUX A 803       1.479  68.539  64.776  1.00 24.99     0.066 C 
HETATM   13  C13 HUX A 803       3.023  66.455  64.548  1.00 25.35    -0.006 A 
HETATM   14  C6  HUX A 803       2.212  69.088  63.541  1.00 25.41     0.014 C 
HETATM   15  C7  HUX A 803       3.775  69.586  63.869  1.00 25.50    -0.019 C 
HETATM   16  C12 HUX A 803       2.342  67.982  62.514  1.00 25.36     0.018 C 
HETATM   17  C8  HUX A 803       4.894  68.874  63.719  1.00 26.25    -0.083 C 
HETATM   18  C9  HUX A 803       4.727  67.474  63.174  1.00 26.66     0.043 C 
HETATM   19  C11 HUX A 803       3.326  66.882  63.108  1.00 26.07     0.027 C 
HETATM   20  C16 HUX A 803       3.918  63.776  67.249  1.00 26.80     0.017 A 
ENDROOT
BRANCH  17  21
HETATM   21  C18 HUX A 803       6.271  69.534  64.120  1.00 26.17     0.029 C 
HETATM   22  C10 HUX A 803       6.407  70.331  65.438  1.00 24.58     0.010 C 
ENDBRANCH  17  21
TORSDOF 1
