REMARK VINA RESULT:      -6.2      0.000      0.000
REMARK  1 active torsions:
REMARK  status: ('A' for Active; 'I' for Inactive)
REMARK    1  A    between atoms: C8_17  and  C18_19 
ROOT
HETATM    1 CL1  HUX A 803       1.915  64.107  70.962  1.00 25.95    -0.084 Cl
HETATM    2  C1  HUX A 803       2.266  64.401  69.362  1.00 28.50     0.036 A 
HETATM    3  N1  HUX A 803       1.600  66.858  66.658  1.00 24.85    -0.358 N 
ATOM      4  H1  HUX A 803       0.938  67.465  67.141  1.00  0.00     0.166 HD
HETATM    5  C3  HUX A 803       2.164  65.677  67.304  1.00 26.43     0.046 A 
HETATM    6  C4  HUX A 803       1.992  67.110  65.392  1.00 24.00     0.018 A 
HETATM    7  N2  HUX A 803       4.338  64.388  64.568  1.00 27.04    -0.101 NA
HETATM    8  C14 HUX A 803       3.440  65.147  65.296  1.00 26.27     0.067 A 
HETATM    9  C2  HUX A 803       1.719  65.557  68.607  1.00 27.70     0.054 A 
HETATM   10  C17 HUX A 803       3.210  63.482  68.630  1.00 26.96     0.025 A 
HETATM   11  C15 HUX A 803       3.044  64.868  66.626  1.00 26.87     0.015 A 
HETATM   12  C5  HUX A 803       1.328  68.458  64.777  1.00 24.99     0.066 C 
HETATM   13  C13 HUX A 803       2.881  66.373  64.629  1.00 25.35    -0.006 A 
HETATM   14  C6  HUX A 803       2.141  69.019  63.598  1.00 25.41     0.014 C 
HETATM   15  C7  HUX A 803       3.680  69.510  64.033  1.00 25.50    -0.019 C 
HETATM   16  C12 HUX A 803       2.337  67.923  62.570  1.00 25.36     0.018 C 
HETATM   17  C8  HUX A 803       4.806  68.797  63.950  1.00 26.25    -0.083 C 
HETATM   18  C9  HUX A 803       4.672  67.403  63.380  1.00 26.66     0.043 C 
HETATM   19  C11 HUX A 803       3.278  66.815  63.216  1.00 26.07     0.027 C 
HETATM   20  C16 HUX A 803       3.592  63.665  67.354  1.00 26.80     0.017 A 
ENDROOT
BRANCH  17  21
HETATM   21  C18 HUX A 803       6.154  69.450  64.447  1.00 26.17     0.029 C 
HETATM   22  C10 HUX A 803       6.292  69.961  65.900  1.00 24.58     0.010 C 
ENDBRANCH  17  21
TORSDOF 1
