REMARK VINA RESULT:       1.4      0.000      0.000
REMARK  1 active torsions:
REMARK  status: ('A' for Active; 'I' for Inactive)
REMARK    1  A    between atoms: C8_17  and  C18_19 
ROOT
HETATM    1 CL1  HUX A 803       1.052  65.175  70.962  1.00 25.95    -0.084 Cl
HETATM    2  C1  HUX A 803       1.624  65.038  69.406  1.00 28.50     0.036 A 
HETATM    3  N1  HUX A 803       1.690  66.869  66.176  1.00 24.85    -0.358 N 
ATOM      4  H1  HUX A 803       1.091  67.657  66.417  1.00  0.00     0.166 HD
HETATM    5  C3  HUX A 803       1.971  65.803  67.133  1.00 26.43     0.046 A 
HETATM    6  C4  HUX A 803       2.260  66.763  64.957  1.00 24.00     0.018 A 
HETATM    7  N2  HUX A 803       4.191  63.626  65.082  1.00 27.04    -0.101 NA
HETATM    8  C14 HUX A 803       3.358  64.650  65.492  1.00 26.27     0.067 A 
HETATM    9  C2  HUX A 803       1.369  66.051  68.351  1.00 27.70     0.054 A 
HETATM   10  C17 HUX A 803       2.476  63.853  69.033  1.00 26.96     0.025 A 
HETATM   11  C15 HUX A 803       2.773  64.745  66.779  1.00 26.87     0.015 A 
HETATM   12  C5  HUX A 803       1.906  68.011  63.979  1.00 24.99     0.066 C 
HETATM   13  C13 HUX A 803       3.091  65.753  64.506  1.00 25.35    -0.006 A 
HETATM   14  C6  HUX A 803       2.929  68.164  62.841  1.00 25.41     0.014 C 
HETATM   15  C7  HUX A 803       4.469  68.524  63.385  1.00 25.50    -0.019 C 
HETATM   16  C12 HUX A 803       3.051  66.844  62.109  1.00 25.36     0.018 C 
HETATM   17  C8  HUX A 803       5.461  67.662  63.621  1.00 26.25    -0.083 C 
HETATM   18  C9  HUX A 803       5.159  66.207  63.346  1.00 26.66     0.043 C 
HETATM   19  C11 HUX A 803       3.713  65.796  63.106  1.00 26.07     0.027 C 
HETATM   20  C16 HUX A 803       3.026  63.679  67.817  1.00 26.80     0.017 A 
ENDROOT
BRANCH  17  21
HETATM   21  C18 HUX A 803       6.836  68.219  64.162  1.00 26.17     0.029 C 
HETATM   22  C10 HUX A 803       7.253  67.988  65.632  1.00 24.58     0.010 C 
ENDBRANCH  17  21
TORSDOF 1
