REMARK VINA RESULT:      -7.5      0.000      0.000
REMARK  1 active torsions:
REMARK  status: ('A' for Active; 'I' for Inactive)
REMARK    1  A    between atoms: C8_17  and  C18_19 
ROOT
HETATM    1 CL1  HUX A 803       7.970  71.612  69.051  1.00 25.95    -0.084 Cl
HETATM    2  C1  HUX A 803       6.730  71.033  68.105  1.00 28.50     0.036 A 
HETATM    3  N1  HUX A 803       6.086  69.586  64.746  1.00 24.85    -0.358 N 
ATOM      4  H1  HUX A 803       7.020  69.673  64.344  1.00  0.00     0.166 HD
HETATM    5  C3  HUX A 803       5.791  70.057  66.096  1.00 26.43     0.046 A 
HETATM    6  C4  HUX A 803       5.070  69.032  64.054  1.00 24.00     0.018 A 
HETATM    7  N2  HUX A 803       2.176  69.189  66.333  1.00 27.04    -0.101 NA
HETATM    8  C14 HUX A 803       3.467  69.358  65.866  1.00 26.27     0.067 A 
HETATM    9  C2  HUX A 803       6.921  70.559  66.711  1.00 27.70     0.054 A 
HETATM   10  C17 HUX A 803       5.340  70.942  68.681  1.00 26.96     0.025 A 
HETATM   11  C15 HUX A 803       4.522  69.939  66.610  1.00 26.87     0.015 A 
HETATM   12  C5  HUX A 803       5.511  68.518  62.578  1.00 24.99     0.066 C 
HETATM   13  C13 HUX A 803       3.766  68.852  64.482  1.00 25.35    -0.006 A 
HETATM   14  C6  HUX A 803       4.547  67.456  62.022  1.00 25.41     0.014 C 
HETATM   15  C7  HUX A 803       4.523  66.050  62.928  1.00 25.50    -0.019 C 
HETATM   16  C12 HUX A 803       3.134  67.999  62.071  1.00 25.36     0.018 C 
HETATM   17  C8  HUX A 803       3.668  65.737  63.904  1.00 26.25    -0.083 C 
HETATM   18  C9  HUX A 803       2.595  66.759  64.204  1.00 26.66     0.043 C 
HETATM   19  C11 HUX A 803       2.726  68.150  63.601  1.00 26.07     0.027 C 
HETATM   20  C16 HUX A 803       4.285  70.442  68.012  1.00 26.80     0.017 A 
ENDROOT
BRANCH  17  21
HETATM   21  C18 HUX A 803       3.846  64.359  64.654  1.00 26.17     0.029 C 
HETATM   22  C10 HUX A 803       3.218  64.136  66.049  1.00 24.58     0.010 C 
ENDBRANCH  17  21
TORSDOF 1
