REMARK VINA RESULT:      -4.3      0.000      0.000
REMARK  1 active torsions:
REMARK  status: ('A' for Active; 'I' for Inactive)
REMARK    1  A    between atoms: C8_17  and  C18_19 
ROOT
HETATM    1 CL1  HUX A 803       1.864  64.018  70.771  1.00 25.95    -0.084 Cl
HETATM    2  C1  HUX A 803       2.283  64.347  69.195  1.00 28.50     0.036 A 
HETATM    3  N1  HUX A 803       1.591  66.762  66.461  1.00 24.85    -0.358 N 
ATOM      4  H1  HUX A 803       0.858  67.315  66.906  1.00  0.00     0.166 HD
HETATM    5  C3  HUX A 803       2.204  65.624  67.137  1.00 26.43     0.046 A 
HETATM    6  C4  HUX A 803       2.036  67.051  65.220  1.00 24.00     0.018 A 
HETATM    7  N2  HUX A 803       4.626  64.520  64.531  1.00 27.04    -0.101 NA
HETATM    8  C14 HUX A 803       3.632  65.205  65.206  1.00 26.27     0.067 A 
HETATM    9  C2  HUX A 803       1.695  65.462  68.411  1.00 27.70     0.054 A 
HETATM   10  C17 HUX A 803       3.335  63.507  68.519  1.00 26.96     0.025 A 
HETATM   11  C15 HUX A 803       3.182  64.888  66.511  1.00 26.87     0.015 A 
HETATM   12  C5  HUX A 803       1.308  68.349  64.570  1.00 24.99     0.066 C 
HETATM   13  C13 HUX A 803       3.021  66.388  64.509  1.00 25.35    -0.006 A 
HETATM   14  C6  HUX A 803       2.143  68.977  63.441  1.00 25.41     0.014 C 
HETATM   15  C7  HUX A 803       3.612  69.581  63.966  1.00 25.50    -0.019 C 
HETATM   16  C12 HUX A 803       2.481  67.905  62.425  1.00 25.36     0.018 C 
HETATM   17  C8  HUX A 803       4.792  68.956  63.948  1.00 26.25    -0.083 C 
HETATM   18  C9  HUX A 803       4.798  67.559  63.369  1.00 26.66     0.043 C 
HETATM   19  C11 HUX A 803       3.464  66.868  63.123  1.00 26.07     0.027 C 
HETATM   20  C16 HUX A 803       3.777  63.726  67.267  1.00 26.80     0.017 A 
ENDROOT
BRANCH  17  21
HETATM   21  C18 HUX A 803       6.055  69.706  64.524  1.00 26.17     0.029 C 
HETATM   22  C10 HUX A 803       6.099  70.151  66.004  1.00 24.58     0.010 C 
ENDBRANCH  17  21
TORSDOF 1
