REMARK  1 active torsions:
REMARK  status: ('A' for Active; 'I' for Inactive)
REMARK    1  A    between atoms: C8_17  and  C18_19 
ROOT
HETATM    1 CL1  HUX A 803       7.560  70.996  69.959  1.00 25.95    -0.084 Cl
HETATM    2  C1  HUX A 803       6.378  70.635  68.845  1.00 28.50     0.036 A 
HETATM    3  N1  HUX A 803       5.960  69.581  65.309  1.00 24.85    -0.358 N 
ATOM      4  H1  HUX A 803       6.934  69.611  65.008  1.00  0.00     0.166 HD
HETATM    5  C3  HUX A 803       5.569  69.950  66.666  1.00 26.43     0.046 A 
HETATM    6  C4  HUX A 803       4.975  69.198  64.470  1.00 24.00     0.018 A 
HETATM    7  N2  HUX A 803       1.886  69.430  66.469  1.00 27.04    -0.101 NA
HETATM    8  C14 HUX A 803       3.228  69.512  66.146  1.00 26.27     0.067 A 
HETATM    9  C2  HUX A 803       6.670  70.277  67.434  1.00 27.70     0.054 A 
HETATM   10  C17 HUX A 803       4.934  70.630  69.274  1.00 26.96     0.025 A 
HETATM   11  C15 HUX A 803       4.248  69.912  67.043  1.00 26.87     0.015 A 
HETATM   12  C5  HUX A 803       5.519  68.784  62.997  1.00 24.99     0.066 C 
HETATM   13  C13 HUX A 803       3.623  69.110  64.752  1.00 25.35    -0.006 A 
HETATM   14  C6  HUX A 803       4.527  67.880  62.246  1.00 25.41     0.014 C 
HETATM   15  C7  HUX A 803       4.282  66.405  62.996  1.00 25.50    -0.019 C 
HETATM   16  C12 HUX A 803       3.171  68.555  62.217  1.00 25.36     0.018 C 
HETATM   17  C8  HUX A 803       3.305  66.089  63.849  1.00 26.25    -0.083 C 
HETATM   18  C9  HUX A 803       2.303  67.180  64.150  1.00 26.66     0.043 C 
HETATM   19  C11 HUX A 803       2.621  68.602  63.709  1.00 26.07     0.027 C 
HETATM   20  C16 HUX A 803       3.913  70.303  68.461  1.00 26.80     0.017 A 
ENDROOT
BRANCH  17  21
HETATM   21  C18 HUX A 803       3.279  64.636  64.466  1.00 26.17     0.029 C 
HETATM   22  C10 HUX A 803       4.394  63.619  64.131  1.00 24.58     0.010 C 
ENDBRANCH  17  21
TORSDOF 1
